Circuit: * H:\Documents\ShR2\SPICE Simulations\Isolation.asc

WARNING: Less than two connections to node VCC.  This node is used by V3.
WARNING: Less than two connections to node VNEG.  This node is used by V4.
Per .tran options, skipping operating point for transient analysis.

Date: Mon Sep 15 15:38:57 2014
Total elapsed time: 0.252 seconds.

tnom = 27
temp = 27
method = modified trap
totiter = 47906
traniter = 47906
tranpoints = 23954
accept = 14421
rejected = 9533
matrix size = 12
fillins = 0
solver = Normal
Matrix Compiler1: 320 bytes object code size  0.7/0.7/[0.6]
Matrix Compiler2: 696 bytes object code size  0.6/0.8/[0.6]


