Circuit: * C:\Users\Pavlo\Desktop\ShR2\SPICE Simulations\Isolation.asc

WARNING: Node N010 is floating.
WARNING: Node N015 is floating.

Per .tran options, skipping operating point for transient analysis.

Date: Fri Apr 11 13:45:17 2014
Total elapsed time: 4.041 seconds.

tnom = 27
temp = 27
method = modified trap
totiter = 154198
traniter = 154198
tranpoints = 77087
accept = 48233
rejected = 28854
matrix size = 44
fillins = 17
solver = Normal
Thread vector: 34.1/11.7[4] 6.1/2.8[4] 2.6/1.3[4] 0.2/0.6[1]  2592/500
Matrix Compiler1: 2.56 KB object code size  0.8/0.4/[0.3]
Matrix Compiler2: 4.10 KB object code size  0.4/0.6/[0.3]


