Circuit: * Z:\home\pavlo\Documents\ShR2\SPICE Simulations\Isolation.asc

V2: Missing value, assumed 0V @ DC
Per .tran options, skipping operating point for transient analysis.

Date: Mon Mar 31 14:41:44 2014
Total elapsed time: 0.937 seconds.

tnom = 27
temp = 27
method = modified trap
totiter = 44031
traniter = 44031
tranpoints = 21720
accept = 21155
rejected = 565
matrix size = 34
fillins = 35
solver = Normal
Thread vector: 47.6/28.2[3] 8.6/5.3[3] 4.3/3.5[2] 0.7/1.6[1]  2592/500
Matrix Compiler1: 3.45 KB object code size  2.5/1.2/[0.9]
Matrix Compiler2: 3.69 KB object code size  1.1/1.4/[0.6]


