Circuit: * C:\Users\Pavlo\Desktop\ShR2\SPICE Simulations\Isolation.asc

WARNING: Node N015 is floating.

Per .tran options, skipping operating point for transient analysis.

Date: Thu Apr 10 00:56:44 2014
Total elapsed time: 2.822 seconds.

tnom = 27
temp = 27
method = modified trap
totiter = 94749
traniter = 94749
tranpoints = 43164
accept = 36936
rejected = 6228
matrix size = 46
fillins = 28
solver = Normal
Thread vector: 35.0/12.9[4] 6.5/3.0[4] 2.6/1.3[4] 0.2/1.2[1]  2592/500
Matrix Compiler1: 3.18 KB object code size  1.0/0.5/[0.4]
Matrix Compiler2: 4.47 KB object code size  0.5/0.6/[0.4]


