Circuit: * C:\Users\Pavlo\Desktop\ShR2\SPICE Simulations\Isolation.asc

Per .tran options, skipping operating point for transient analysis.

Date: Mon Apr 07 11:39:15 2014
Total elapsed time: 9.920 seconds.

tnom = 27
temp = 27
method = modified trap
totiter = 450013
traniter = 450013
tranpoints = 224800
accept = 162919
rejected = 61881
matrix size = 42
fillins = 17
solver = Normal
Thread vector: 33.9/11.9[4] 6.4/2.8[4] 2.5/1.3[4] 0.3/6.2[1]  2592/500
Matrix Compiler1: 2.55 KB object code size  1.2/0.7/[0.3]
Matrix Compiler2: 3.94 KB object code size  0.6/0.6/[0.3]


