Circuit: * C:\Users\Pavlo\Desktop\ShR2\SPICE Simulations\Isolation.asc

Per .tran options, skipping operating point for transient analysis.

Date: Wed May 14 09:50:46 2014
Total elapsed time: 45.139 seconds.

tnom = 27
temp = 27
method = modified trap
totiter = 734247
traniter = 734247
tranpoints = 332850
accept = 238946
rejected = 93904
matrix size = 103
fillins = 66
solver = Normal
Thread vector: 119.7/54.1[4] 18.3/7.9[4] 8.3/3.4[4] 0.5/1.1[1]  2592/500
Matrix Compiler1: 8.12 KB object code size  3.4/1.2/[1.2]
Matrix Compiler2: 10.8 KB object code size  1.2/1.4/[0.9]


