Circuit: * C:\Users\Pavlo\Desktop\SHEMP\Isolation.asc

Per .tran options, skipping operating point for transient analysis.

Date: Tue Mar 04 18:22:11 2014
Total elapsed time: 0.410 seconds.

tnom = 27
temp = 27
method = modified trap
totiter = 22911
traniter = 22911
tranpoints = 11422
accept = 7887
rejected = 3535
matrix size = 40
fillins = 16
solver = Normal
Thread vector: 18.5/9.7[3] 4.4/3.0[2] 1.6/1.3[2] 0.2/0.5[1]  2592/500
Matrix Compiler1: 2.91 KB object code size  1.0/0.4/[0.3]
Matrix Compiler2: 3.77 KB object code size  0.4/0.5/[0.3]


